@<TRIPOS>MOLECULE
UNK.pdb
 56 60 0 0 0
SMALL
GASTEIGER

@<TRIPOS>ATOM
      1  N1        34.5900   28.3900   45.4100 N.ar  113  UNK113     -0.2150
      2  C1        35.4300   21.1600   47.7900 C.ar  113  UNK113      0.0575
      3  O         37.9000   29.5600   51.3800 O.3   113  UNK113     -0.3660
      4  C2        35.3900   19.7000   47.9600 C.3   113  UNK113      0.4175
      5  C3        36.4900   21.7300   47.0000 C.ar  113  UNK113     -0.0144
      6  N2        34.6700   25.4400   45.0300 N.ar  113  UNK113     -0.2456
      7  C4        36.5700   23.0600   46.8300 C.ar  113  UNK113      0.1311
      8  N3        35.5800   28.1500   47.4400 N.2   113  UNK113     -0.0514
      9  C5        34.4500   22.0600   48.2600 C.ar  113  UNK113     -0.0496
     10  N4        36.6800   27.8800   49.4700 N.pl3 113  UNK113     -0.2170
     11  C6        34.5100   23.4900   48.0900 C.ar  113  UNK113     -0.0513
     12  N5        34.9100   30.8800   54.3600 N.ar  113  UNK113     -0.2741
     13  C7        35.6700   23.9700   47.3700 C.ar  113  UNK113      0.0392
     14  N6        35.6500   31.8000   53.8300 N.ar  113  UNK113     -0.1796
     15  C8        35.7400   25.4800   47.2300 C.3   113  UNK113      0.2378
     16  N7        36.1000   26.0300   48.4300 N.pl3 113  UNK113     -0.0581
     17  C9        35.0900   26.1100   46.1300 C.ar  113  UNK113      0.1527
     18  C10       35.0600   27.5700   46.3300 C.ar  113  UNK113      0.2577
     19  C11       34.0200   27.7500   44.3300 C.ar  113  UNK113      0.0629
     20  C12       33.3000   28.6300   43.3100 C.3   113  UNK113     -0.0205
     21  C13       34.1700   26.2900   44.1000 C.ar  113  UNK113      0.0599
     22  C14       33.7700   25.5900   42.8500 C.3   113  UNK113     -0.0206
     23  C15       36.1300   27.3400   48.3900 C.cat 113  UNK113      0.4090
     24  C16       35.8700   28.6200   50.4200 C.3   113  UNK113      0.0911
     25  C17       36.6400   28.9400   51.7500 C.3   113  UNK113      0.1153
     26  C18       35.9200   29.8700   52.7500 C.ar  113  UNK113      0.0214
     27  C19       35.0100   29.6600   53.7400 C.ar  113  UNK113      0.0309
     28  C20       34.1500   31.2700   55.5300 C.3   113  UNK113      0.0302
     29  C21       36.1800   31.2300   52.7500 C.ar  113  UNK113      0.0551
     30  C22       38.7000   28.8200   50.5200 C.3   113  UNK113      0.0774
     31  C23       37.9400   28.5900   49.2300 C.3   113  UNK113      0.0841
     32  F1        37.5800   23.5300   46.0700 F     113  UNK113     -0.2051
     33  F2        36.5900   19.1700   48.3300 F     113  UNK113     -0.1659
     34  F3        34.5200   19.2100   48.8200 F     113  UNK113     -0.1659
     35  F4        35.0700   19.0600   46.8400 F     113  UNK113     -0.1659
     36  H1        37.2400   21.1800   46.4600 H     113  UNK113      0.0652
     37  H2        33.6400   21.6400   48.8500 H     113  UNK113      0.0623
     38  H3        33.7100   24.1200   48.4600 H     113  UNK113      0.0623
     39  H4        33.9400   28.9500   42.4600 H     113  UNK113      0.0293
     40  H5        33.0500   29.5900   43.8200 H     113  UNK113      0.0293
     41  H6        32.3800   28.1200   42.9500 H     113  UNK113      0.0293
     42  H7        34.2000   26.1500   41.9900 H     113  UNK113      0.0293
     43  H8        32.6700   25.5800   42.7600 H     113  UNK113      0.0293
     44  H9        34.1900   24.5700   42.7700 H     113  UNK113      0.0293
     45  H10       35.0600   27.9400   50.7600 H     113  UNK113      0.0663
     46  H11       35.3500   29.5300   50.0700 H     113  UNK113      0.0663
     47  H12       36.7500   27.9800   52.3000 H     113  UNK113      0.0677
     48  H13       34.6200   28.7400   54.1400 H     113  UNK113      0.0830
     49  H14       33.1200   31.6100   55.2700 H     113  UNK113      0.0473
     50  H15       34.7500   32.0100   56.0800 H     113  UNK113      0.0473
     51  H16       34.0500   30.4000   56.2100 H     113  UNK113      0.0473
     52  H17       36.8500   31.8300   52.1400 H     113  UNK113      0.0851
     53  H18       38.9800   27.8400   50.9400 H     113  UNK113      0.0590
     54  H19       39.6000   29.4300   50.2700 H     113  UNK113      0.0590
     55  H20       37.7100   29.5200   48.6600 H     113  UNK113      0.0657
     56  H21       38.5900   28.0200   48.5300 H     113  UNK113      0.0657
@<TRIPOS>BOND
     1    42    22    1
     2    39    20    1
     3    43    22    1
     4    44    22    1
     5    22    21    1
     6    41    20    1
     7    20    40    1
     8    20    19    1
     9    21    19   ar
    10    21     6   ar
    11    19     1   ar
    12     6    17   ar
    13     1    18   ar
    14    32     7    1
    15    17    18   ar
    16    17    15    1
    17    18     8    1
    18    36     5    1
    19     7     5   ar
    20     7    13   ar
    21    35     4    1
    22     5     2   ar
    23    15    13    1
    24    15    16    1
    25    13    11   ar
    26     8    23    2
    27     2     4    1
    28     2     9   ar
    29     4    33    1
    30     4    34    1
    31    11     9   ar
    32    11    38    1
    33     9    37    1
    34    23    16    1
    35    23    10    1
    36    56    31    1
    37    55    31    1
    38    31    10    1
    39    31    30    1
    40    10    24    1
    41    46    24    1
    42    54    30    1
    43    24    45    1
    44    24    25    1
    45    30    53    1
    46    30     3    1
    47     3    25    1
    48    25    47    1
    49    25    26    1
    50    52    29    1
    51    26    29   ar
    52    26    27   ar
    53    29    14   ar
    54    27    48    1
    55    27    12   ar
    56    14    12   ar
    57    12    28    1
    58    49    28    1
    59    28    50    1
    60    28    51    1
